/*--------------------------------*- C++ -*----------------------------------*\
| =========                 |                                                 |
| \\      /  F ield         | OpenFOAM: The Open Source CFD Toolbox           |
|  \\    /   O peration     | Version:  2.3.0                                 |
|   \\  /    A nd           | Web:      www.OpenFOAM.org                      |
|    \\/     M anipulation  |                                                 |
\*---------------------------------------------------------------------------*/
FoamFile
{
    version     2.0;
    format      ascii;
    class       dictionary;
    location    "constant";
    object      mixtureFractionProperties;
}
// * * * * * * * * * * * * * * * * * * * * * * * * * * * * * * * * * * * * * //

elements 5(N C H O AR);

AR
{
    AR  1.0;
}

O2
{
    O   1.0;
}

N2
{
    N   1.0;
}

H2O
{
    H   0.1119043;
    O   0.8880957;
}

CH4
{
    C   0.7486707;
    H   0.2513293;
}

CO2
{
    C   0.2729115;
    O   0.7270885;
}
// ************************************************************************* //
