/*--------------------------------*- C++ -*----------------------------------*\
| =========                 |                                                 |
| \\      /  F ield         | OpenFOAM: The Open Source CFD Toolbox           |
|  \\    /   O peration     | Version:  2.3.0                                 |
|   \\  /    A nd           | Web:      www.OpenFOAM.org                      |
|    \\/     M anipulation  |                                                 |
\*---------------------------------------------------------------------------*/
FoamFile
{
    version     2.0;
    format      ascii;
    class       dictionary;
    location    "constant";
    object      mixtureFractionProperties;
}
// * * * * * * * * * * * * * * * * * * * * * * * * * * * * * * * * * * * * * //

mixtureFractionName xi.o;

elementWeights
{
    AR 0;
    C 0;
    H 0;
    N 0;
    O 1;
}

fuelStream
{
    CH4 1.0;
}

oxydizerStream
{
    AR  0.01;
    N2  0.76;
    O2  0.23;
}
// ************************************************************************* //
